# CIF file generated by openbabel 2.3.90, see http://openbabel.sf.net
data_I
_chemical_name_common ''
_cell_length_a 6.38064
_cell_length_b 6.38064
_cell_length_c 20
_cell_angle_alpha 90
_cell_angle_beta 90
_cell_angle_gamma 120
_space_group_name_H-M_alt 'P 1'
_space_group_name_Hall 'P 1'
loop_
    _symmetry_equiv_pos_as_xyz
    x,y,z
loop_
    _atom_site_label
    _atom_site_type_symbol
    _atom_site_fract_x
    _atom_site_fract_y
    _atom_site_fract_z
    _atom_site_occupancy
    Mo0     Mo   0.16666   0.33334   0.50000   1.000
    S1      S    0.33334   0.16667   0.42176   1.000
    S2      S    0.33334   0.16667   0.57824   1.000
    Mo3     Mo   0.16666   0.83333   0.50000   1.000
    S4      S    0.33334   0.66667   0.42176   1.000
    S5      S    0.33334   0.66667   0.57824   1.000
    Mo6     Mo   0.66666   0.33334   0.50000   1.000
    S7      S    0.83334   0.16667   0.42176   1.000
    S8      S    0.83334   0.16667   0.57824   1.000
    Mo9     Mo   0.66666   0.83333   0.50000   1.000
    S10     S    0.83334   0.66667   0.42176   1.000
    S11     S    0.83334   0.66667   0.57824   1.000
    H12     H    0.83334   0.16667   0.62824   1.000
