# CIF file generated by openbabel 2.4.1, see http://openbabel.sf.net
data_I
_chemical_name_common ''
_cell_length_a 3.19032
_cell_length_b 3.19032
_cell_length_c 20
_cell_angle_alpha 90
_cell_angle_beta 90
_cell_angle_gamma 120
loop_
    _atom_site_label
    _atom_site_type_symbol
    _atom_site_fract_x
    _atom_site_fract_y
    _atom_site_fract_z
    _atom_site_occupancy
    Mo0     Mo   0.33333   0.66667   0.50000   1.000
    S1      S    0.66667   0.33333   0.42176   1.000
    S2      S    0.66667   0.33333   0.57824   1.000
